@<TRIPOS>MOLECULE
Molecule
   11    10     1     0     0
SMALL
No Charge or Current Charge


@<TRIPOS>ATOM
      1 Pt1         0.0000    0.1880   -0.0000 Pt        0 CIA      0.457540
      2 Cl2         1.7560   -1.4330    0.0030 c5        0 CIA     -0.615944
      3 Cl3        -1.7560   -1.4330   -0.0030 c6        0 CIA     -0.615953
      4 N4         -1.4670    1.6290    0.0060 n4        0 CIA     -0.550890
      5 H5         -1.4880    2.1580    0.8750 hn        0 CIA      0.315115
      6 H6         -1.3750    2.3000   -0.7540 hn        0 CIA      0.317931
      7 N7          1.4670    1.6290   -0.0060 n5        0 CIA     -0.551241
      8 H8          1.4870    2.1590   -0.8750 hn        0 CIA      0.315237
      9 H9          1.3760    2.2990    0.7550 hn        0 CIA      0.317973
     10 H10         2.3770    1.1820    0.0930 hn        0 CIA      0.305169
     11 H11        -2.3770    1.1820   -0.0940 hn        0 CIA      0.305063
@<TRIPOS>BOND
     1    1    2 1   
     2    1    3 1   
     3    1    4 1   
     4    1    7 1   
     5    4    5 1   
     6    4    6 1   
     7    4   11 1   
     8    7    8 1   
     9    7    9 1   
    10    7   10 1   
@<TRIPOS>SUBSTRUCTURE
     1 CIA         1 TEMP              0 ****  ****    0 ROOT
