@<TRIPOS>MOLECULE
Molecule
   29    31     1     0     0
SMALL
No Charge or Current Charge


@<TRIPOS>ATOM
      1 C1          -3.5180     1.4780    -0.0740 c3         0 OXA       -0.120834
      2 C2          -3.5180    -1.4780     0.0740 c3         0 OXA       -0.120866
      3 C3          -4.7780    -0.6980    -0.3110 c3         0 OXA        0.012297
      4 C4          -4.7780     0.6980     0.3110 c3         0 OXA        0.012294
      5 C5          -2.2750    -0.6920    -0.3170 c3         0 OXA        0.152504
      6 C6          -2.2750     0.6920     0.3170 c3         0 OXA        0.152421
      7 N7          -1.0000     1.3610    -0.0720 n4         0 OXA       -0.511319
      8 N8          -1.0000    -1.3610     0.0720 n5         0 OXA       -0.511333
      9 C9           3.2540    -0.7760     0.0330 c          0 OXA        0.762664
     10 C10          3.2540     0.7760    -0.0330 c          0 OXA        0.762647
     11 Pt11         0.5510    -0.0000    -0.0000 Pt         0 OXA        0.422428
     12 O12          2.0660    -1.3460     0.0420 os         0 OXA       -0.652372
     13 O13          2.0660     1.3460    -0.0420 o1         0 OXA       -0.652370
     14 O14          4.3190     1.3950    -0.0720 o          0 OXA       -0.722291
     15 O15          4.3190    -1.3950     0.0720 o          0 OXA       -0.722300
     16 H16         -1.0830    -1.7310     1.0210 hn         0 OXA        0.312168
     17 H17         -0.8320    -2.1680    -0.5280 hn         0 OXA        0.340944
     18 H18         -1.0830     1.7310    -1.0210 hn         0 OXA        0.312206
     19 H19         -0.8320     2.1680     0.5280 hn         0 OXA        0.340915
     20 H20         -3.5010    -2.4560    -0.4110 hc         0 OXA        0.047600
     21 H21         -3.5050    -1.6470     1.1560 hc         0 OXA        0.056634
     22 H22         -4.8280    -0.6120    -1.4000 hc         0 OXA        0.013099
     23 H23         -5.6620    -1.2540     0.0060 hc         0 OXA        0.017565
     24 H24         -4.8280     0.6120     1.4000 hc         0 OXA        0.013095
     25 H25         -5.6620     1.2540    -0.0060 hc         0 OXA        0.017563
     26 H26         -3.5010     2.4560     0.4110 hc         0 OXA        0.047606
     27 H27         -3.5050     1.6470    -1.1560 hc         0 OXA        0.056613
     28 H28         -2.2350    -0.5770    -1.4050 hx         0 OXA        0.080201
     29 H29         -2.2350     0.5770     1.4050 hx         0 OXA        0.080221
@<TRIPOS>BOND
     1     1     4 1   
     2     1     6 1   
     3     1    26 1   
     4     1    27 1   
     5     2     3 1   
     6     2     5 1   
     7     2    20 1   
     8     2    21 1   
     9     3     4 1   
    10     3    22 1   
    11     3    23 1   
    12     4    24 1   
    13     4    25 1   
    14     5     6 1   
    15     5     8 1   
    16     5    28 1   
    17     6     7 1   
    18     6    29 1   
    19     7    11 1   
    20     7    18 1   
    21     7    19 1   
    22     8    11 1   
    23     8    16 1   
    24     8    17 1   
    25     9    10 1   
    26     9    12 1   
    27     9    15 2   
    28    10    13 1   
    29    10    14 2   
    30    11    12 1   
    31    11    13 1   
@<TRIPOS>SUBSTRUCTURE
     1 OXA         1 TEMP              0 ****  ****    0 ROOT

