@<TRIPOS>MOLECULE
Molecule
   25    26     1     0     0
SMALL
No Charge or Current Charge


@<TRIPOS>ATOM
      1 Pt1         -1.1070    -0.0130    -0.0450 Pt         0 CPX        0.419245
      2 N2          -2.4700     1.3650     0.6830 n4         0 CPX       -0.586226
      3 H3          -2.6860     1.2400     1.6690 hn         0 CPX        0.310625
      4 H4          -2.0610     2.2920     0.5800 hn         0 CPX        0.317178
      5 N5          -2.3140    -1.6640     0.2980 n5         0 CPX       -0.384577
      6 H6          -1.7960    -2.4910     0.0060 hn         0 CPX        0.267778
      7 H7          -2.5600    -1.7920     1.2760 hn         0 CPX        0.269828
      8 H8          -3.3540     1.3670     0.1790 hn         0 CPX        0.323945
      9 H9          -3.1820    -1.6460    -0.2320 hn         0 CPX        0.259300
     10 O10          0.0560     1.5750    -0.4730 os         0 CPX       -0.656873
     11 O11          0.2130    -1.3270    -0.8160 o1         0 CPX       -0.687134
     12 C12          1.3670     1.4310    -0.5300 c          0 CPX        0.793611
     13 O13          2.1020     2.3210    -0.9760 o          0 CPX       -0.744548
     14 C14          1.5120    -1.1050    -0.7380 c          0 CPX        0.827255
     15 O15          2.3340    -1.8870    -1.2290 o          0 CPX       -0.723981
     16 C16          1.9620     0.1420     0.0300 cy         0 CPX        0.019627
     17 C17          3.4830     0.1550     0.2740 cy         0 CPX       -0.195423
     18 C18          1.7820    -0.0910     1.5680 cy         0 CPX       -0.038495
     19 C19          3.2450    -0.5790     1.6090 cy         0 CPX        0.039668
     20 H20          1.6550     0.8630     2.0830 hc         0 CPX        0.043145
     21 H21          0.9920    -0.7740     1.8800 hc         0 CPX       -0.009631
     22 H22          3.8500    -0.2880     2.4670 hc         0 CPX       -0.010121
     23 H23          3.3020    -1.6590     1.4800 hc         0 CPX        0.027604
     24 H24          3.8150     1.1800     0.4290 hc         0 CPX        0.084564
     25 H25          4.0990    -0.3280    -0.4800 hc         0 CPX        0.033634
@<TRIPOS>BOND
     1     1     2 1   
     2     1     5 1   
     3     1    10 1   
     4     1    11 1   
     5     2     3 1   
     6     2     4 1   
     7     2     8 1   
     8     5     6 1   
     9     5     7 1   
    10     5     9 1   
    11    10    12 1   
    12    11    14 1   
    13    12    13 2   
    14    12    16 1   
    15    14    15 2   
    16    14    16 1   
    17    16    17 1   
    18    16    18 1   
    19    17    19 1   
    20    17    24 1   
    21    17    25 1   
    22    18    19 1   
    23    18    20 1   
    24    18    21 1   
    25    19    22 1   
    26    19    23 1   
@<TRIPOS>SUBSTRUCTURE
     1 CPX         1 TEMP              0 ****  ****    0 ROOT

